.subckt sram_arr512 VDD VSS BL BLB
+ wl[0] wl[1] wl[2] wl[3] wl[4] wl[5] wl[6] wl[7]
+ wl[8] wl[9] wl[10] wl[11] wl[12] wl[13] wl[14] wl[15]
+ wl[16] wl[17] wl[18] wl[19] wl[20] wl[21] wl[22] wl[23]
+ wl[24] wl[25] wl[26] wl[27] wl[28] wl[29] wl[30] wl[31]
+ wl[32] wl[33] wl[34] wl[35] wl[36] wl[37] wl[38] wl[39]
+ wl[40] wl[41] wl[42] wl[43] wl[44] wl[45] wl[46] wl[47]
+ wl[48] wl[49] wl[50] wl[51] wl[52] wl[53] wl[54] wl[55]
+ wl[56] wl[57] wl[58] wl[59] wl[60] wl[61] wl[62] wl[63]
+ wl[64] wl[65] wl[66] wl[67] wl[68] wl[69] wl[70] wl[71]
+ wl[72] wl[73] wl[74] wl[75] wl[76] wl[77] wl[78] wl[79]
+ wl[80] wl[81] wl[82] wl[83] wl[84] wl[85] wl[86] wl[87]
+ wl[88] wl[89] wl[90] wl[91] wl[92] wl[93] wl[94] wl[95]
+ wl[96] wl[97] wl[98] wl[99] wl[100] wl[101] wl[102] wl[103]
+ wl[104] wl[105] wl[106] wl[107] wl[108] wl[109] wl[110] wl[111]
+ wl[112] wl[113] wl[114] wl[115] wl[116] wl[117] wl[118] wl[119]
+ wl[120] wl[121] wl[122] wl[123] wl[124] wl[125] wl[126] wl[127]
+ wl[128] wl[129] wl[130] wl[131] wl[132] wl[133] wl[134] wl[135]
+ wl[136] wl[137] wl[138] wl[139] wl[140] wl[141] wl[142] wl[143]
+ wl[144] wl[145] wl[146] wl[147] wl[148] wl[149] wl[150] wl[151]
+ wl[152] wl[153] wl[154] wl[155] wl[156] wl[157] wl[158] wl[159]
+ wl[160] wl[161] wl[162] wl[163] wl[164] wl[165] wl[166] wl[167]
+ wl[168] wl[169] wl[170] wl[171] wl[172] wl[173] wl[174] wl[175]
+ wl[176] wl[177] wl[178] wl[179] wl[180] wl[181] wl[182] wl[183]
+ wl[184] wl[185] wl[186] wl[187] wl[188] wl[189] wl[190] wl[191]
+ wl[192] wl[193] wl[194] wl[195] wl[196] wl[197] wl[198] wl[199]
+ wl[200] wl[201] wl[202] wl[203] wl[204] wl[205] wl[206] wl[207]
+ wl[208] wl[209] wl[210] wl[211] wl[212] wl[213] wl[214] wl[215]
+ wl[216] wl[217] wl[218] wl[219] wl[220] wl[221] wl[222] wl[223]
+ wl[224] wl[225] wl[226] wl[227] wl[228] wl[229] wl[230] wl[231]
+ wl[232] wl[233] wl[234] wl[235] wl[236] wl[237] wl[238] wl[239]
+ wl[240] wl[241] wl[242] wl[243] wl[244] wl[245] wl[246] wl[247]
+ wl[248] wl[249] wl[250] wl[251] wl[252] wl[253] wl[254] wl[255]
+ wl[256] wl[257] wl[258] wl[259] wl[260] wl[261] wl[262] wl[263]
+ wl[264] wl[265] wl[266] wl[267] wl[268] wl[269] wl[270] wl[271]
+ wl[272] wl[273] wl[274] wl[275] wl[276] wl[277] wl[278] wl[279]
+ wl[280] wl[281] wl[282] wl[283] wl[284] wl[285] wl[286] wl[287]
+ wl[288] wl[289] wl[290] wl[291] wl[292] wl[293] wl[294] wl[295]
+ wl[296] wl[297] wl[298] wl[299] wl[300] wl[301] wl[302] wl[303]
+ wl[304] wl[305] wl[306] wl[307] wl[308] wl[309] wl[310] wl[311]
+ wl[312] wl[313] wl[314] wl[315] wl[316] wl[317] wl[318] wl[319]
+ wl[320] wl[321] wl[322] wl[323] wl[324] wl[325] wl[326] wl[327]
+ wl[328] wl[329] wl[330] wl[331] wl[332] wl[333] wl[334] wl[335]
+ wl[336] wl[337] wl[338] wl[339] wl[340] wl[341] wl[342] wl[343]
+ wl[344] wl[345] wl[346] wl[347] wl[348] wl[349] wl[350] wl[351]
+ wl[352] wl[353] wl[354] wl[355] wl[356] wl[357] wl[358] wl[359]
+ wl[360] wl[361] wl[362] wl[363] wl[364] wl[365] wl[366] wl[367]
+ wl[368] wl[369] wl[370] wl[371] wl[372] wl[373] wl[374] wl[375]
+ wl[376] wl[377] wl[378] wl[379] wl[380] wl[381] wl[382] wl[383]
+ wl[384] wl[385] wl[386] wl[387] wl[388] wl[389] wl[390] wl[391]
+ wl[392] wl[393] wl[394] wl[395] wl[396] wl[397] wl[398] wl[399]
+ wl[400] wl[401] wl[402] wl[403] wl[404] wl[405] wl[406] wl[407]
+ wl[408] wl[409] wl[410] wl[411] wl[412] wl[413] wl[414] wl[415]
+ wl[416] wl[417] wl[418] wl[419] wl[420] wl[421] wl[422] wl[423]
+ wl[424] wl[425] wl[426] wl[427] wl[428] wl[429] wl[430] wl[431]
+ wl[432] wl[433] wl[434] wl[435] wl[436] wl[437] wl[438] wl[439]
+ wl[440] wl[441] wl[442] wl[443] wl[444] wl[445] wl[446] wl[447]
+ wl[448] wl[449] wl[450] wl[451] wl[452] wl[453] wl[454] wl[455]
+ wl[456] wl[457] wl[458] wl[459] wl[460] wl[461] wl[462] wl[463]
+ wl[464] wl[465] wl[466] wl[467] wl[468] wl[469] wl[470] wl[471]
+ wl[472] wl[473] wl[474] wl[475] wl[476] wl[477] wl[478] wl[479]
+ wl[480] wl[481] wl[482] wl[483] wl[484] wl[485] wl[486] wl[487]
+ wl[488] wl[489] wl[490] wl[491] wl[492] wl[493] wl[494] wl[495]
+ wl[496] wl[497] wl[498] wl[499] wl[500] wl[501] wl[502] wl[503]
+ wl[504] wl[505] wl[506] wl[507] wl[508] wl[509] wl[510] wl[511]
x_cell0 VDD VSS wl[0] BL BLB sram_6t
x_cell1 VDD VSS wl[1] BL BLB sram_6t
x_cell2 VDD VSS wl[2] BL BLB sram_6t
x_cell3 VDD VSS wl[3] BL BLB sram_6t
x_cell4 VDD VSS wl[4] BL BLB sram_6t
x_cell5 VDD VSS wl[5] BL BLB sram_6t
x_cell6 VDD VSS wl[6] BL BLB sram_6t
x_cell7 VDD VSS wl[7] BL BLB sram_6t
x_cell8 VDD VSS wl[8] BL BLB sram_6t
x_cell9 VDD VSS wl[9] BL BLB sram_6t
x_cell10 VDD VSS wl[10] BL BLB sram_6t
x_cell11 VDD VSS wl[11] BL BLB sram_6t
x_cell12 VDD VSS wl[12] BL BLB sram_6t
x_cell13 VDD VSS wl[13] BL BLB sram_6t
x_cell14 VDD VSS wl[14] BL BLB sram_6t
x_cell15 VDD VSS wl[15] BL BLB sram_6t
x_cell16 VDD VSS wl[16] BL BLB sram_6t
x_cell17 VDD VSS wl[17] BL BLB sram_6t
x_cell18 VDD VSS wl[18] BL BLB sram_6t
x_cell19 VDD VSS wl[19] BL BLB sram_6t
x_cell20 VDD VSS wl[20] BL BLB sram_6t
x_cell21 VDD VSS wl[21] BL BLB sram_6t
x_cell22 VDD VSS wl[22] BL BLB sram_6t
x_cell23 VDD VSS wl[23] BL BLB sram_6t
x_cell24 VDD VSS wl[24] BL BLB sram_6t
x_cell25 VDD VSS wl[25] BL BLB sram_6t
x_cell26 VDD VSS wl[26] BL BLB sram_6t
x_cell27 VDD VSS wl[27] BL BLB sram_6t
x_cell28 VDD VSS wl[28] BL BLB sram_6t
x_cell29 VDD VSS wl[29] BL BLB sram_6t
x_cell30 VDD VSS wl[30] BL BLB sram_6t
x_cell31 VDD VSS wl[31] BL BLB sram_6t
x_cell32 VDD VSS wl[32] BL BLB sram_6t
x_cell33 VDD VSS wl[33] BL BLB sram_6t
x_cell34 VDD VSS wl[34] BL BLB sram_6t
x_cell35 VDD VSS wl[35] BL BLB sram_6t
x_cell36 VDD VSS wl[36] BL BLB sram_6t
x_cell37 VDD VSS wl[37] BL BLB sram_6t
x_cell38 VDD VSS wl[38] BL BLB sram_6t
x_cell39 VDD VSS wl[39] BL BLB sram_6t
x_cell40 VDD VSS wl[40] BL BLB sram_6t
x_cell41 VDD VSS wl[41] BL BLB sram_6t
x_cell42 VDD VSS wl[42] BL BLB sram_6t
x_cell43 VDD VSS wl[43] BL BLB sram_6t
x_cell44 VDD VSS wl[44] BL BLB sram_6t
x_cell45 VDD VSS wl[45] BL BLB sram_6t
x_cell46 VDD VSS wl[46] BL BLB sram_6t
x_cell47 VDD VSS wl[47] BL BLB sram_6t
x_cell48 VDD VSS wl[48] BL BLB sram_6t
x_cell49 VDD VSS wl[49] BL BLB sram_6t
x_cell50 VDD VSS wl[50] BL BLB sram_6t
x_cell51 VDD VSS wl[51] BL BLB sram_6t
x_cell52 VDD VSS wl[52] BL BLB sram_6t
x_cell53 VDD VSS wl[53] BL BLB sram_6t
x_cell54 VDD VSS wl[54] BL BLB sram_6t
x_cell55 VDD VSS wl[55] BL BLB sram_6t
x_cell56 VDD VSS wl[56] BL BLB sram_6t
x_cell57 VDD VSS wl[57] BL BLB sram_6t
x_cell58 VDD VSS wl[58] BL BLB sram_6t
x_cell59 VDD VSS wl[59] BL BLB sram_6t
x_cell60 VDD VSS wl[60] BL BLB sram_6t
x_cell61 VDD VSS wl[61] BL BLB sram_6t
x_cell62 VDD VSS wl[62] BL BLB sram_6t
x_cell63 VDD VSS wl[63] BL BLB sram_6t
x_cell64 VDD VSS wl[64] BL BLB sram_6t
x_cell65 VDD VSS wl[65] BL BLB sram_6t
x_cell66 VDD VSS wl[66] BL BLB sram_6t
x_cell67 VDD VSS wl[67] BL BLB sram_6t
x_cell68 VDD VSS wl[68] BL BLB sram_6t
x_cell69 VDD VSS wl[69] BL BLB sram_6t
x_cell70 VDD VSS wl[70] BL BLB sram_6t
x_cell71 VDD VSS wl[71] BL BLB sram_6t
x_cell72 VDD VSS wl[72] BL BLB sram_6t
x_cell73 VDD VSS wl[73] BL BLB sram_6t
x_cell74 VDD VSS wl[74] BL BLB sram_6t
x_cell75 VDD VSS wl[75] BL BLB sram_6t
x_cell76 VDD VSS wl[76] BL BLB sram_6t
x_cell77 VDD VSS wl[77] BL BLB sram_6t
x_cell78 VDD VSS wl[78] BL BLB sram_6t
x_cell79 VDD VSS wl[79] BL BLB sram_6t
x_cell80 VDD VSS wl[80] BL BLB sram_6t
x_cell81 VDD VSS wl[81] BL BLB sram_6t
x_cell82 VDD VSS wl[82] BL BLB sram_6t
x_cell83 VDD VSS wl[83] BL BLB sram_6t
x_cell84 VDD VSS wl[84] BL BLB sram_6t
x_cell85 VDD VSS wl[85] BL BLB sram_6t
x_cell86 VDD VSS wl[86] BL BLB sram_6t
x_cell87 VDD VSS wl[87] BL BLB sram_6t
x_cell88 VDD VSS wl[88] BL BLB sram_6t
x_cell89 VDD VSS wl[89] BL BLB sram_6t
x_cell90 VDD VSS wl[90] BL BLB sram_6t
x_cell91 VDD VSS wl[91] BL BLB sram_6t
x_cell92 VDD VSS wl[92] BL BLB sram_6t
x_cell93 VDD VSS wl[93] BL BLB sram_6t
x_cell94 VDD VSS wl[94] BL BLB sram_6t
x_cell95 VDD VSS wl[95] BL BLB sram_6t
x_cell96 VDD VSS wl[96] BL BLB sram_6t
x_cell97 VDD VSS wl[97] BL BLB sram_6t
x_cell98 VDD VSS wl[98] BL BLB sram_6t
x_cell99 VDD VSS wl[99] BL BLB sram_6t
x_cell100 VDD VSS wl[100] BL BLB sram_6t
x_cell101 VDD VSS wl[101] BL BLB sram_6t
x_cell102 VDD VSS wl[102] BL BLB sram_6t
x_cell103 VDD VSS wl[103] BL BLB sram_6t
x_cell104 VDD VSS wl[104] BL BLB sram_6t
x_cell105 VDD VSS wl[105] BL BLB sram_6t
x_cell106 VDD VSS wl[106] BL BLB sram_6t
x_cell107 VDD VSS wl[107] BL BLB sram_6t
x_cell108 VDD VSS wl[108] BL BLB sram_6t
x_cell109 VDD VSS wl[109] BL BLB sram_6t
x_cell110 VDD VSS wl[110] BL BLB sram_6t
x_cell111 VDD VSS wl[111] BL BLB sram_6t
x_cell112 VDD VSS wl[112] BL BLB sram_6t
x_cell113 VDD VSS wl[113] BL BLB sram_6t
x_cell114 VDD VSS wl[114] BL BLB sram_6t
x_cell115 VDD VSS wl[115] BL BLB sram_6t
x_cell116 VDD VSS wl[116] BL BLB sram_6t
x_cell117 VDD VSS wl[117] BL BLB sram_6t
x_cell118 VDD VSS wl[118] BL BLB sram_6t
x_cell119 VDD VSS wl[119] BL BLB sram_6t
x_cell120 VDD VSS wl[120] BL BLB sram_6t
x_cell121 VDD VSS wl[121] BL BLB sram_6t
x_cell122 VDD VSS wl[122] BL BLB sram_6t
x_cell123 VDD VSS wl[123] BL BLB sram_6t
x_cell124 VDD VSS wl[124] BL BLB sram_6t
x_cell125 VDD VSS wl[125] BL BLB sram_6t
x_cell126 VDD VSS wl[126] BL BLB sram_6t
x_cell127 VDD VSS wl[127] BL BLB sram_6t
x_cell128 VDD VSS wl[128] BL BLB sram_6t
x_cell129 VDD VSS wl[129] BL BLB sram_6t
x_cell130 VDD VSS wl[130] BL BLB sram_6t
x_cell131 VDD VSS wl[131] BL BLB sram_6t
x_cell132 VDD VSS wl[132] BL BLB sram_6t
x_cell133 VDD VSS wl[133] BL BLB sram_6t
x_cell134 VDD VSS wl[134] BL BLB sram_6t
x_cell135 VDD VSS wl[135] BL BLB sram_6t
x_cell136 VDD VSS wl[136] BL BLB sram_6t
x_cell137 VDD VSS wl[137] BL BLB sram_6t
x_cell138 VDD VSS wl[138] BL BLB sram_6t
x_cell139 VDD VSS wl[139] BL BLB sram_6t
x_cell140 VDD VSS wl[140] BL BLB sram_6t
x_cell141 VDD VSS wl[141] BL BLB sram_6t
x_cell142 VDD VSS wl[142] BL BLB sram_6t
x_cell143 VDD VSS wl[143] BL BLB sram_6t
x_cell144 VDD VSS wl[144] BL BLB sram_6t
x_cell145 VDD VSS wl[145] BL BLB sram_6t
x_cell146 VDD VSS wl[146] BL BLB sram_6t
x_cell147 VDD VSS wl[147] BL BLB sram_6t
x_cell148 VDD VSS wl[148] BL BLB sram_6t
x_cell149 VDD VSS wl[149] BL BLB sram_6t
x_cell150 VDD VSS wl[150] BL BLB sram_6t
x_cell151 VDD VSS wl[151] BL BLB sram_6t
x_cell152 VDD VSS wl[152] BL BLB sram_6t
x_cell153 VDD VSS wl[153] BL BLB sram_6t
x_cell154 VDD VSS wl[154] BL BLB sram_6t
x_cell155 VDD VSS wl[155] BL BLB sram_6t
x_cell156 VDD VSS wl[156] BL BLB sram_6t
x_cell157 VDD VSS wl[157] BL BLB sram_6t
x_cell158 VDD VSS wl[158] BL BLB sram_6t
x_cell159 VDD VSS wl[159] BL BLB sram_6t
x_cell160 VDD VSS wl[160] BL BLB sram_6t
x_cell161 VDD VSS wl[161] BL BLB sram_6t
x_cell162 VDD VSS wl[162] BL BLB sram_6t
x_cell163 VDD VSS wl[163] BL BLB sram_6t
x_cell164 VDD VSS wl[164] BL BLB sram_6t
x_cell165 VDD VSS wl[165] BL BLB sram_6t
x_cell166 VDD VSS wl[166] BL BLB sram_6t
x_cell167 VDD VSS wl[167] BL BLB sram_6t
x_cell168 VDD VSS wl[168] BL BLB sram_6t
x_cell169 VDD VSS wl[169] BL BLB sram_6t
x_cell170 VDD VSS wl[170] BL BLB sram_6t
x_cell171 VDD VSS wl[171] BL BLB sram_6t
x_cell172 VDD VSS wl[172] BL BLB sram_6t
x_cell173 VDD VSS wl[173] BL BLB sram_6t
x_cell174 VDD VSS wl[174] BL BLB sram_6t
x_cell175 VDD VSS wl[175] BL BLB sram_6t
x_cell176 VDD VSS wl[176] BL BLB sram_6t
x_cell177 VDD VSS wl[177] BL BLB sram_6t
x_cell178 VDD VSS wl[178] BL BLB sram_6t
x_cell179 VDD VSS wl[179] BL BLB sram_6t
x_cell180 VDD VSS wl[180] BL BLB sram_6t
x_cell181 VDD VSS wl[181] BL BLB sram_6t
x_cell182 VDD VSS wl[182] BL BLB sram_6t
x_cell183 VDD VSS wl[183] BL BLB sram_6t
x_cell184 VDD VSS wl[184] BL BLB sram_6t
x_cell185 VDD VSS wl[185] BL BLB sram_6t
x_cell186 VDD VSS wl[186] BL BLB sram_6t
x_cell187 VDD VSS wl[187] BL BLB sram_6t
x_cell188 VDD VSS wl[188] BL BLB sram_6t
x_cell189 VDD VSS wl[189] BL BLB sram_6t
x_cell190 VDD VSS wl[190] BL BLB sram_6t
x_cell191 VDD VSS wl[191] BL BLB sram_6t
x_cell192 VDD VSS wl[192] BL BLB sram_6t
x_cell193 VDD VSS wl[193] BL BLB sram_6t
x_cell194 VDD VSS wl[194] BL BLB sram_6t
x_cell195 VDD VSS wl[195] BL BLB sram_6t
x_cell196 VDD VSS wl[196] BL BLB sram_6t
x_cell197 VDD VSS wl[197] BL BLB sram_6t
x_cell198 VDD VSS wl[198] BL BLB sram_6t
x_cell199 VDD VSS wl[199] BL BLB sram_6t
x_cell200 VDD VSS wl[200] BL BLB sram_6t
x_cell201 VDD VSS wl[201] BL BLB sram_6t
x_cell202 VDD VSS wl[202] BL BLB sram_6t
x_cell203 VDD VSS wl[203] BL BLB sram_6t
x_cell204 VDD VSS wl[204] BL BLB sram_6t
x_cell205 VDD VSS wl[205] BL BLB sram_6t
x_cell206 VDD VSS wl[206] BL BLB sram_6t
x_cell207 VDD VSS wl[207] BL BLB sram_6t
x_cell208 VDD VSS wl[208] BL BLB sram_6t
x_cell209 VDD VSS wl[209] BL BLB sram_6t
x_cell210 VDD VSS wl[210] BL BLB sram_6t
x_cell211 VDD VSS wl[211] BL BLB sram_6t
x_cell212 VDD VSS wl[212] BL BLB sram_6t
x_cell213 VDD VSS wl[213] BL BLB sram_6t
x_cell214 VDD VSS wl[214] BL BLB sram_6t
x_cell215 VDD VSS wl[215] BL BLB sram_6t
x_cell216 VDD VSS wl[216] BL BLB sram_6t
x_cell217 VDD VSS wl[217] BL BLB sram_6t
x_cell218 VDD VSS wl[218] BL BLB sram_6t
x_cell219 VDD VSS wl[219] BL BLB sram_6t
x_cell220 VDD VSS wl[220] BL BLB sram_6t
x_cell221 VDD VSS wl[221] BL BLB sram_6t
x_cell222 VDD VSS wl[222] BL BLB sram_6t
x_cell223 VDD VSS wl[223] BL BLB sram_6t
x_cell224 VDD VSS wl[224] BL BLB sram_6t
x_cell225 VDD VSS wl[225] BL BLB sram_6t
x_cell226 VDD VSS wl[226] BL BLB sram_6t
x_cell227 VDD VSS wl[227] BL BLB sram_6t
x_cell228 VDD VSS wl[228] BL BLB sram_6t
x_cell229 VDD VSS wl[229] BL BLB sram_6t
x_cell230 VDD VSS wl[230] BL BLB sram_6t
x_cell231 VDD VSS wl[231] BL BLB sram_6t
x_cell232 VDD VSS wl[232] BL BLB sram_6t
x_cell233 VDD VSS wl[233] BL BLB sram_6t
x_cell234 VDD VSS wl[234] BL BLB sram_6t
x_cell235 VDD VSS wl[235] BL BLB sram_6t
x_cell236 VDD VSS wl[236] BL BLB sram_6t
x_cell237 VDD VSS wl[237] BL BLB sram_6t
x_cell238 VDD VSS wl[238] BL BLB sram_6t
x_cell239 VDD VSS wl[239] BL BLB sram_6t
x_cell240 VDD VSS wl[240] BL BLB sram_6t
x_cell241 VDD VSS wl[241] BL BLB sram_6t
x_cell242 VDD VSS wl[242] BL BLB sram_6t
x_cell243 VDD VSS wl[243] BL BLB sram_6t
x_cell244 VDD VSS wl[244] BL BLB sram_6t
x_cell245 VDD VSS wl[245] BL BLB sram_6t
x_cell246 VDD VSS wl[246] BL BLB sram_6t
x_cell247 VDD VSS wl[247] BL BLB sram_6t
x_cell248 VDD VSS wl[248] BL BLB sram_6t
x_cell249 VDD VSS wl[249] BL BLB sram_6t
x_cell250 VDD VSS wl[250] BL BLB sram_6t
x_cell251 VDD VSS wl[251] BL BLB sram_6t
x_cell252 VDD VSS wl[252] BL BLB sram_6t
x_cell253 VDD VSS wl[253] BL BLB sram_6t
x_cell254 VDD VSS wl[254] BL BLB sram_6t
x_cell255 VDD VSS wl[255] BL BLB sram_6t
x_cell256 VDD VSS wl[256] BL BLB sram_6t
x_cell257 VDD VSS wl[257] BL BLB sram_6t
x_cell258 VDD VSS wl[258] BL BLB sram_6t
x_cell259 VDD VSS wl[259] BL BLB sram_6t
x_cell260 VDD VSS wl[260] BL BLB sram_6t
x_cell261 VDD VSS wl[261] BL BLB sram_6t
x_cell262 VDD VSS wl[262] BL BLB sram_6t
x_cell263 VDD VSS wl[263] BL BLB sram_6t
x_cell264 VDD VSS wl[264] BL BLB sram_6t
x_cell265 VDD VSS wl[265] BL BLB sram_6t
x_cell266 VDD VSS wl[266] BL BLB sram_6t
x_cell267 VDD VSS wl[267] BL BLB sram_6t
x_cell268 VDD VSS wl[268] BL BLB sram_6t
x_cell269 VDD VSS wl[269] BL BLB sram_6t
x_cell270 VDD VSS wl[270] BL BLB sram_6t
x_cell271 VDD VSS wl[271] BL BLB sram_6t
x_cell272 VDD VSS wl[272] BL BLB sram_6t
x_cell273 VDD VSS wl[273] BL BLB sram_6t
x_cell274 VDD VSS wl[274] BL BLB sram_6t
x_cell275 VDD VSS wl[275] BL BLB sram_6t
x_cell276 VDD VSS wl[276] BL BLB sram_6t
x_cell277 VDD VSS wl[277] BL BLB sram_6t
x_cell278 VDD VSS wl[278] BL BLB sram_6t
x_cell279 VDD VSS wl[279] BL BLB sram_6t
x_cell280 VDD VSS wl[280] BL BLB sram_6t
x_cell281 VDD VSS wl[281] BL BLB sram_6t
x_cell282 VDD VSS wl[282] BL BLB sram_6t
x_cell283 VDD VSS wl[283] BL BLB sram_6t
x_cell284 VDD VSS wl[284] BL BLB sram_6t
x_cell285 VDD VSS wl[285] BL BLB sram_6t
x_cell286 VDD VSS wl[286] BL BLB sram_6t
x_cell287 VDD VSS wl[287] BL BLB sram_6t
x_cell288 VDD VSS wl[288] BL BLB sram_6t
x_cell289 VDD VSS wl[289] BL BLB sram_6t
x_cell290 VDD VSS wl[290] BL BLB sram_6t
x_cell291 VDD VSS wl[291] BL BLB sram_6t
x_cell292 VDD VSS wl[292] BL BLB sram_6t
x_cell293 VDD VSS wl[293] BL BLB sram_6t
x_cell294 VDD VSS wl[294] BL BLB sram_6t
x_cell295 VDD VSS wl[295] BL BLB sram_6t
x_cell296 VDD VSS wl[296] BL BLB sram_6t
x_cell297 VDD VSS wl[297] BL BLB sram_6t
x_cell298 VDD VSS wl[298] BL BLB sram_6t
x_cell299 VDD VSS wl[299] BL BLB sram_6t
x_cell300 VDD VSS wl[300] BL BLB sram_6t
x_cell301 VDD VSS wl[301] BL BLB sram_6t
x_cell302 VDD VSS wl[302] BL BLB sram_6t
x_cell303 VDD VSS wl[303] BL BLB sram_6t
x_cell304 VDD VSS wl[304] BL BLB sram_6t
x_cell305 VDD VSS wl[305] BL BLB sram_6t
x_cell306 VDD VSS wl[306] BL BLB sram_6t
x_cell307 VDD VSS wl[307] BL BLB sram_6t
x_cell308 VDD VSS wl[308] BL BLB sram_6t
x_cell309 VDD VSS wl[309] BL BLB sram_6t
x_cell310 VDD VSS wl[310] BL BLB sram_6t
x_cell311 VDD VSS wl[311] BL BLB sram_6t
x_cell312 VDD VSS wl[312] BL BLB sram_6t
x_cell313 VDD VSS wl[313] BL BLB sram_6t
x_cell314 VDD VSS wl[314] BL BLB sram_6t
x_cell315 VDD VSS wl[315] BL BLB sram_6t
x_cell316 VDD VSS wl[316] BL BLB sram_6t
x_cell317 VDD VSS wl[317] BL BLB sram_6t
x_cell318 VDD VSS wl[318] BL BLB sram_6t
x_cell319 VDD VSS wl[319] BL BLB sram_6t
x_cell320 VDD VSS wl[320] BL BLB sram_6t
x_cell321 VDD VSS wl[321] BL BLB sram_6t
x_cell322 VDD VSS wl[322] BL BLB sram_6t
x_cell323 VDD VSS wl[323] BL BLB sram_6t
x_cell324 VDD VSS wl[324] BL BLB sram_6t
x_cell325 VDD VSS wl[325] BL BLB sram_6t
x_cell326 VDD VSS wl[326] BL BLB sram_6t
x_cell327 VDD VSS wl[327] BL BLB sram_6t
x_cell328 VDD VSS wl[328] BL BLB sram_6t
x_cell329 VDD VSS wl[329] BL BLB sram_6t
x_cell330 VDD VSS wl[330] BL BLB sram_6t
x_cell331 VDD VSS wl[331] BL BLB sram_6t
x_cell332 VDD VSS wl[332] BL BLB sram_6t
x_cell333 VDD VSS wl[333] BL BLB sram_6t
x_cell334 VDD VSS wl[334] BL BLB sram_6t
x_cell335 VDD VSS wl[335] BL BLB sram_6t
x_cell336 VDD VSS wl[336] BL BLB sram_6t
x_cell337 VDD VSS wl[337] BL BLB sram_6t
x_cell338 VDD VSS wl[338] BL BLB sram_6t
x_cell339 VDD VSS wl[339] BL BLB sram_6t
x_cell340 VDD VSS wl[340] BL BLB sram_6t
x_cell341 VDD VSS wl[341] BL BLB sram_6t
x_cell342 VDD VSS wl[342] BL BLB sram_6t
x_cell343 VDD VSS wl[343] BL BLB sram_6t
x_cell344 VDD VSS wl[344] BL BLB sram_6t
x_cell345 VDD VSS wl[345] BL BLB sram_6t
x_cell346 VDD VSS wl[346] BL BLB sram_6t
x_cell347 VDD VSS wl[347] BL BLB sram_6t
x_cell348 VDD VSS wl[348] BL BLB sram_6t
x_cell349 VDD VSS wl[349] BL BLB sram_6t
x_cell350 VDD VSS wl[350] BL BLB sram_6t
x_cell351 VDD VSS wl[351] BL BLB sram_6t
x_cell352 VDD VSS wl[352] BL BLB sram_6t
x_cell353 VDD VSS wl[353] BL BLB sram_6t
x_cell354 VDD VSS wl[354] BL BLB sram_6t
x_cell355 VDD VSS wl[355] BL BLB sram_6t
x_cell356 VDD VSS wl[356] BL BLB sram_6t
x_cell357 VDD VSS wl[357] BL BLB sram_6t
x_cell358 VDD VSS wl[358] BL BLB sram_6t
x_cell359 VDD VSS wl[359] BL BLB sram_6t
x_cell360 VDD VSS wl[360] BL BLB sram_6t
x_cell361 VDD VSS wl[361] BL BLB sram_6t
x_cell362 VDD VSS wl[362] BL BLB sram_6t
x_cell363 VDD VSS wl[363] BL BLB sram_6t
x_cell364 VDD VSS wl[364] BL BLB sram_6t
x_cell365 VDD VSS wl[365] BL BLB sram_6t
x_cell366 VDD VSS wl[366] BL BLB sram_6t
x_cell367 VDD VSS wl[367] BL BLB sram_6t
x_cell368 VDD VSS wl[368] BL BLB sram_6t
x_cell369 VDD VSS wl[369] BL BLB sram_6t
x_cell370 VDD VSS wl[370] BL BLB sram_6t
x_cell371 VDD VSS wl[371] BL BLB sram_6t
x_cell372 VDD VSS wl[372] BL BLB sram_6t
x_cell373 VDD VSS wl[373] BL BLB sram_6t
x_cell374 VDD VSS wl[374] BL BLB sram_6t
x_cell375 VDD VSS wl[375] BL BLB sram_6t
x_cell376 VDD VSS wl[376] BL BLB sram_6t
x_cell377 VDD VSS wl[377] BL BLB sram_6t
x_cell378 VDD VSS wl[378] BL BLB sram_6t
x_cell379 VDD VSS wl[379] BL BLB sram_6t
x_cell380 VDD VSS wl[380] BL BLB sram_6t
x_cell381 VDD VSS wl[381] BL BLB sram_6t
x_cell382 VDD VSS wl[382] BL BLB sram_6t
x_cell383 VDD VSS wl[383] BL BLB sram_6t
x_cell384 VDD VSS wl[384] BL BLB sram_6t
x_cell385 VDD VSS wl[385] BL BLB sram_6t
x_cell386 VDD VSS wl[386] BL BLB sram_6t
x_cell387 VDD VSS wl[387] BL BLB sram_6t
x_cell388 VDD VSS wl[388] BL BLB sram_6t
x_cell389 VDD VSS wl[389] BL BLB sram_6t
x_cell390 VDD VSS wl[390] BL BLB sram_6t
x_cell391 VDD VSS wl[391] BL BLB sram_6t
x_cell392 VDD VSS wl[392] BL BLB sram_6t
x_cell393 VDD VSS wl[393] BL BLB sram_6t
x_cell394 VDD VSS wl[394] BL BLB sram_6t
x_cell395 VDD VSS wl[395] BL BLB sram_6t
x_cell396 VDD VSS wl[396] BL BLB sram_6t
x_cell397 VDD VSS wl[397] BL BLB sram_6t
x_cell398 VDD VSS wl[398] BL BLB sram_6t
x_cell399 VDD VSS wl[399] BL BLB sram_6t
x_cell400 VDD VSS wl[400] BL BLB sram_6t
x_cell401 VDD VSS wl[401] BL BLB sram_6t
x_cell402 VDD VSS wl[402] BL BLB sram_6t
x_cell403 VDD VSS wl[403] BL BLB sram_6t
x_cell404 VDD VSS wl[404] BL BLB sram_6t
x_cell405 VDD VSS wl[405] BL BLB sram_6t
x_cell406 VDD VSS wl[406] BL BLB sram_6t
x_cell407 VDD VSS wl[407] BL BLB sram_6t
x_cell408 VDD VSS wl[408] BL BLB sram_6t
x_cell409 VDD VSS wl[409] BL BLB sram_6t
x_cell410 VDD VSS wl[410] BL BLB sram_6t
x_cell411 VDD VSS wl[411] BL BLB sram_6t
x_cell412 VDD VSS wl[412] BL BLB sram_6t
x_cell413 VDD VSS wl[413] BL BLB sram_6t
x_cell414 VDD VSS wl[414] BL BLB sram_6t
x_cell415 VDD VSS wl[415] BL BLB sram_6t
x_cell416 VDD VSS wl[416] BL BLB sram_6t
x_cell417 VDD VSS wl[417] BL BLB sram_6t
x_cell418 VDD VSS wl[418] BL BLB sram_6t
x_cell419 VDD VSS wl[419] BL BLB sram_6t
x_cell420 VDD VSS wl[420] BL BLB sram_6t
x_cell421 VDD VSS wl[421] BL BLB sram_6t
x_cell422 VDD VSS wl[422] BL BLB sram_6t
x_cell423 VDD VSS wl[423] BL BLB sram_6t
x_cell424 VDD VSS wl[424] BL BLB sram_6t
x_cell425 VDD VSS wl[425] BL BLB sram_6t
x_cell426 VDD VSS wl[426] BL BLB sram_6t
x_cell427 VDD VSS wl[427] BL BLB sram_6t
x_cell428 VDD VSS wl[428] BL BLB sram_6t
x_cell429 VDD VSS wl[429] BL BLB sram_6t
x_cell430 VDD VSS wl[430] BL BLB sram_6t
x_cell431 VDD VSS wl[431] BL BLB sram_6t
x_cell432 VDD VSS wl[432] BL BLB sram_6t
x_cell433 VDD VSS wl[433] BL BLB sram_6t
x_cell434 VDD VSS wl[434] BL BLB sram_6t
x_cell435 VDD VSS wl[435] BL BLB sram_6t
x_cell436 VDD VSS wl[436] BL BLB sram_6t
x_cell437 VDD VSS wl[437] BL BLB sram_6t
x_cell438 VDD VSS wl[438] BL BLB sram_6t
x_cell439 VDD VSS wl[439] BL BLB sram_6t
x_cell440 VDD VSS wl[440] BL BLB sram_6t
x_cell441 VDD VSS wl[441] BL BLB sram_6t
x_cell442 VDD VSS wl[442] BL BLB sram_6t
x_cell443 VDD VSS wl[443] BL BLB sram_6t
x_cell444 VDD VSS wl[444] BL BLB sram_6t
x_cell445 VDD VSS wl[445] BL BLB sram_6t
x_cell446 VDD VSS wl[446] BL BLB sram_6t
x_cell447 VDD VSS wl[447] BL BLB sram_6t
x_cell448 VDD VSS wl[448] BL BLB sram_6t
x_cell449 VDD VSS wl[449] BL BLB sram_6t
x_cell450 VDD VSS wl[450] BL BLB sram_6t
x_cell451 VDD VSS wl[451] BL BLB sram_6t
x_cell452 VDD VSS wl[452] BL BLB sram_6t
x_cell453 VDD VSS wl[453] BL BLB sram_6t
x_cell454 VDD VSS wl[454] BL BLB sram_6t
x_cell455 VDD VSS wl[455] BL BLB sram_6t
x_cell456 VDD VSS wl[456] BL BLB sram_6t
x_cell457 VDD VSS wl[457] BL BLB sram_6t
x_cell458 VDD VSS wl[458] BL BLB sram_6t
x_cell459 VDD VSS wl[459] BL BLB sram_6t
x_cell460 VDD VSS wl[460] BL BLB sram_6t
x_cell461 VDD VSS wl[461] BL BLB sram_6t
x_cell462 VDD VSS wl[462] BL BLB sram_6t
x_cell463 VDD VSS wl[463] BL BLB sram_6t
x_cell464 VDD VSS wl[464] BL BLB sram_6t
x_cell465 VDD VSS wl[465] BL BLB sram_6t
x_cell466 VDD VSS wl[466] BL BLB sram_6t
x_cell467 VDD VSS wl[467] BL BLB sram_6t
x_cell468 VDD VSS wl[468] BL BLB sram_6t
x_cell469 VDD VSS wl[469] BL BLB sram_6t
x_cell470 VDD VSS wl[470] BL BLB sram_6t
x_cell471 VDD VSS wl[471] BL BLB sram_6t
x_cell472 VDD VSS wl[472] BL BLB sram_6t
x_cell473 VDD VSS wl[473] BL BLB sram_6t
x_cell474 VDD VSS wl[474] BL BLB sram_6t
x_cell475 VDD VSS wl[475] BL BLB sram_6t
x_cell476 VDD VSS wl[476] BL BLB sram_6t
x_cell477 VDD VSS wl[477] BL BLB sram_6t
x_cell478 VDD VSS wl[478] BL BLB sram_6t
x_cell479 VDD VSS wl[479] BL BLB sram_6t
x_cell480 VDD VSS wl[480] BL BLB sram_6t
x_cell481 VDD VSS wl[481] BL BLB sram_6t
x_cell482 VDD VSS wl[482] BL BLB sram_6t
x_cell483 VDD VSS wl[483] BL BLB sram_6t
x_cell484 VDD VSS wl[484] BL BLB sram_6t
x_cell485 VDD VSS wl[485] BL BLB sram_6t
x_cell486 VDD VSS wl[486] BL BLB sram_6t
x_cell487 VDD VSS wl[487] BL BLB sram_6t
x_cell488 VDD VSS wl[488] BL BLB sram_6t
x_cell489 VDD VSS wl[489] BL BLB sram_6t
x_cell490 VDD VSS wl[490] BL BLB sram_6t
x_cell491 VDD VSS wl[491] BL BLB sram_6t
x_cell492 VDD VSS wl[492] BL BLB sram_6t
x_cell493 VDD VSS wl[493] BL BLB sram_6t
x_cell494 VDD VSS wl[494] BL BLB sram_6t
x_cell495 VDD VSS wl[495] BL BLB sram_6t
x_cell496 VDD VSS wl[496] BL BLB sram_6t
x_cell497 VDD VSS wl[497] BL BLB sram_6t
x_cell498 VDD VSS wl[498] BL BLB sram_6t
x_cell499 VDD VSS wl[499] BL BLB sram_6t
x_cell500 VDD VSS wl[500] BL BLB sram_6t
x_cell501 VDD VSS wl[501] BL BLB sram_6t
x_cell502 VDD VSS wl[502] BL BLB sram_6t
x_cell503 VDD VSS wl[503] BL BLB sram_6t
x_cell504 VDD VSS wl[504] BL BLB sram_6t
x_cell505 VDD VSS wl[505] BL BLB sram_6t
x_cell506 VDD VSS wl[506] BL BLB sram_6t
x_cell507 VDD VSS wl[507] BL BLB sram_6t
x_cell508 VDD VSS wl[508] BL BLB sram_6t
x_cell509 VDD VSS wl[509] BL BLB sram_6t
x_cell510 VDD VSS wl[510] BL BLB sram_6t
x_cell511 VDD VSS wl[511] BL BLB sram_6t
.ends
.subckt buffer_arr512 VDD VSS clk
+ in[0] in[1] in[2] in[3] in[4] in[5] in[6] in[7]
+ in[8] in[9] in[10] in[11] in[12] in[13] in[14] in[15]
+ in[16] in[17] in[18] in[19] in[20] in[21] in[22] in[23]
+ in[24] in[25] in[26] in[27] in[28] in[29] in[30] in[31]
+ in[32] in[33] in[34] in[35] in[36] in[37] in[38] in[39]
+ in[40] in[41] in[42] in[43] in[44] in[45] in[46] in[47]
+ in[48] in[49] in[50] in[51] in[52] in[53] in[54] in[55]
+ in[56] in[57] in[58] in[59] in[60] in[61] in[62] in[63]
+ in[64] in[65] in[66] in[67] in[68] in[69] in[70] in[71]
+ in[72] in[73] in[74] in[75] in[76] in[77] in[78] in[79]
+ in[80] in[81] in[82] in[83] in[84] in[85] in[86] in[87]
+ in[88] in[89] in[90] in[91] in[92] in[93] in[94] in[95]
+ in[96] in[97] in[98] in[99] in[100] in[101] in[102] in[103]
+ in[104] in[105] in[106] in[107] in[108] in[109] in[110] in[111]
+ in[112] in[113] in[114] in[115] in[116] in[117] in[118] in[119]
+ in[120] in[121] in[122] in[123] in[124] in[125] in[126] in[127]
+ in[128] in[129] in[130] in[131] in[132] in[133] in[134] in[135]
+ in[136] in[137] in[138] in[139] in[140] in[141] in[142] in[143]
+ in[144] in[145] in[146] in[147] in[148] in[149] in[150] in[151]
+ in[152] in[153] in[154] in[155] in[156] in[157] in[158] in[159]
+ in[160] in[161] in[162] in[163] in[164] in[165] in[166] in[167]
+ in[168] in[169] in[170] in[171] in[172] in[173] in[174] in[175]
+ in[176] in[177] in[178] in[179] in[180] in[181] in[182] in[183]
+ in[184] in[185] in[186] in[187] in[188] in[189] in[190] in[191]
+ in[192] in[193] in[194] in[195] in[196] in[197] in[198] in[199]
+ in[200] in[201] in[202] in[203] in[204] in[205] in[206] in[207]
+ in[208] in[209] in[210] in[211] in[212] in[213] in[214] in[215]
+ in[216] in[217] in[218] in[219] in[220] in[221] in[222] in[223]
+ in[224] in[225] in[226] in[227] in[228] in[229] in[230] in[231]
+ in[232] in[233] in[234] in[235] in[236] in[237] in[238] in[239]
+ in[240] in[241] in[242] in[243] in[244] in[245] in[246] in[247]
+ in[248] in[249] in[250] in[251] in[252] in[253] in[254] in[255]
+ in[256] in[257] in[258] in[259] in[260] in[261] in[262] in[263]
+ in[264] in[265] in[266] in[267] in[268] in[269] in[270] in[271]
+ in[272] in[273] in[274] in[275] in[276] in[277] in[278] in[279]
+ in[280] in[281] in[282] in[283] in[284] in[285] in[286] in[287]
+ in[288] in[289] in[290] in[291] in[292] in[293] in[294] in[295]
+ in[296] in[297] in[298] in[299] in[300] in[301] in[302] in[303]
+ in[304] in[305] in[306] in[307] in[308] in[309] in[310] in[311]
+ in[312] in[313] in[314] in[315] in[316] in[317] in[318] in[319]
+ in[320] in[321] in[322] in[323] in[324] in[325] in[326] in[327]
+ in[328] in[329] in[330] in[331] in[332] in[333] in[334] in[335]
+ in[336] in[337] in[338] in[339] in[340] in[341] in[342] in[343]
+ in[344] in[345] in[346] in[347] in[348] in[349] in[350] in[351]
+ in[352] in[353] in[354] in[355] in[356] in[357] in[358] in[359]
+ in[360] in[361] in[362] in[363] in[364] in[365] in[366] in[367]
+ in[368] in[369] in[370] in[371] in[372] in[373] in[374] in[375]
+ in[376] in[377] in[378] in[379] in[380] in[381] in[382] in[383]
+ in[384] in[385] in[386] in[387] in[388] in[389] in[390] in[391]
+ in[392] in[393] in[394] in[395] in[396] in[397] in[398] in[399]
+ in[400] in[401] in[402] in[403] in[404] in[405] in[406] in[407]
+ in[408] in[409] in[410] in[411] in[412] in[413] in[414] in[415]
+ in[416] in[417] in[418] in[419] in[420] in[421] in[422] in[423]
+ in[424] in[425] in[426] in[427] in[428] in[429] in[430] in[431]
+ in[432] in[433] in[434] in[435] in[436] in[437] in[438] in[439]
+ in[440] in[441] in[442] in[443] in[444] in[445] in[446] in[447]
+ in[448] in[449] in[450] in[451] in[452] in[453] in[454] in[455]
+ in[456] in[457] in[458] in[459] in[460] in[461] in[462] in[463]
+ in[464] in[465] in[466] in[467] in[468] in[469] in[470] in[471]
+ in[472] in[473] in[474] in[475] in[476] in[477] in[478] in[479]
+ in[480] in[481] in[482] in[483] in[484] in[485] in[486] in[487]
+ in[488] in[489] in[490] in[491] in[492] in[493] in[494] in[495]
+ in[496] in[497] in[498] in[499] in[500] in[501] in[502] in[503]
+ in[504] in[505] in[506] in[507] in[508] in[509] in[510] in[511]
+ out[0] out[1] out[2] out[3] out[4] out[5] out[6] out[7]
+ out[8] out[9] out[10] out[11] out[12] out[13] out[14] out[15]
+ out[16] out[17] out[18] out[19] out[20] out[21] out[22] out[23]
+ out[24] out[25] out[26] out[27] out[28] out[29] out[30] out[31]
+ out[32] out[33] out[34] out[35] out[36] out[37] out[38] out[39]
+ out[40] out[41] out[42] out[43] out[44] out[45] out[46] out[47]
+ out[48] out[49] out[50] out[51] out[52] out[53] out[54] out[55]
+ out[56] out[57] out[58] out[59] out[60] out[61] out[62] out[63]
+ out[64] out[65] out[66] out[67] out[68] out[69] out[70] out[71]
+ out[72] out[73] out[74] out[75] out[76] out[77] out[78] out[79]
+ out[80] out[81] out[82] out[83] out[84] out[85] out[86] out[87]
+ out[88] out[89] out[90] out[91] out[92] out[93] out[94] out[95]
+ out[96] out[97] out[98] out[99] out[100] out[101] out[102] out[103]